LAMMPS (7 Feb 2024 - Update 1)
units		metal
atom_style	charge
boundary        p p p

read_data       data.grafeno
Reading data file ...
  orthogonal box = (-2.143055 -0.834999 -20) to (99.156948 50.465 20)
  reading atoms ...
  1968 atoms
pair_style airebo 3.0
pair_coeff      * * CHrcc2.airebo C
Reading airebo potential file CHrcc2.airebo with DATE: 2011-10-25

neighbor	2.0 bin
neigh_modify	delay 0 every 1 check yes page 500000 one 50000

variable       tiempo equal step

fix             7 all balance 2000 1.1 shift z 10 1.1

variable        velocidade equal 1e-3
variable        timestep_var equal 0.0001
variable        temperature equal 10
variable        termalizar_var          equal 200000
variable        termalizar_var_npt      equal 200000
variable        taxa_termalizar_var     equal 200

thermo		200
thermo_style    custom step lx ly lz pxx pyy pzz  ke pe press temp

timestep        0.0001
variable        dampingTemp_var  equal  100*0.0001
variable        dampingPress_var equal 1000*0.0001

variable        cfac equal 1.0e-4

variable        p1  equal -pxx*0.0001
variable        p2  equal -pyy*0.0001
variable        p3  equal -pzz*0.0001
variable        p12 equal -pxy*0.0001
variable        p13 equal -pxz*0.0001
variable        p23 equal -pyz*0.0001

fix             99 all box/relax aniso 0.0 dilate partial
minimize        1.0e-10 1.0e-8 1000 200000
 (../min.cpp:219)
Step           Lx             Ly             Lz            Pxx            Pyy            Pzz           KinEng         PotEng         Press           Temp
0   101.3          51.299999      40            -16153.847     -16848.171      0              0             -14490.354     -11000.673      0
Loop time of 1.60704 on 32 procs for 1000 steps with 1968 atoms

Minimization stats:
  Stopping criterion = max iterations
  Energy initial, next-to-last, final =
  Force two-norm initial, final = 3028.5212 30.450617
  Force max component initial, final = 2185.8946 8.9504198
  Final line search alpha, max atom move = 2.6029294e-05 0.00023297311
  Iterations, force evaluations = 1000 1000

unfix           99

velocity        all create 10 245789 rot yes mom yes
restart         2000  restarteq1   restarteq2
dump            2 all custom 2000 f_npt.lammpstrj id  type  x y z
fix             1 all npt temp 10 10 0.01 x 0.0 0.0 0.1 y 0.0 0.0 0.1
run             200000
Step           Lx             Ly             Lz            Pxx            Pyy            Pzz           KinEng         PotEng         Press           Temp
1000   99.456326      50.309235      40             82.706915      83.497349      14.198249      2.5425471     -14566.416      60.134171      10
Averages over the last 501 of 1001 rows, steps 101000 to 201000:
Lx Ly Lz Pxx Pyy Pzz KinEng PotEng Press Temp
99.1402 50.2672 40 2.12985 1.59485 -0.118347 2.541 -14613 1.20212 9.9939
Loop time of 189.323 on 32 procs for 200000 steps with 1968 atoms

undump 2
unfix 1

fix             1 all nph y 0.0 0.0 0.1
dump            2 all custom 2000 f_npt2.lammpstrj id type  x y z

run             200000
Step           Lx             Ly             Lz            Pxx            Pyy            Pzz           KinEng         PotEng         Press           Temp
201000   99.137453      50.264355      40             82.571142      85.063143     -0.2280538      2.6546656     -14613.229      55.802077      10.44097
Averages over the last 501 of 1001 rows, steps 301000 to 401000:
Lx Ly Lz Pxx Pyy Pzz KinEng PotEng Press Temp
99.1375 50.2676 40 63.0822 0.0149529 0.0613114 2.48642 -14613.1 21.0528 9.77924
Loop time of 184.24 on 32 procs for 200000 steps with 1968 atoms

undump          2

variable alx0_Ic equal lx
variable aly0_Ic equal ly
variable alz0_Ic equal lz
variable lx0_Ic equal 99.1374525249698
variable ly0_Ic equal 50.2698688921643
variable lz0_Ic equal 40

variable lxC equal lx
variable lyC equal ly
variable lzC equal lz

variable strain_lxC equal (lx-99.1374525249698)/99.1374525249698
variable strain_lyC equal (ly-50.2698688921643)/50.2698688921643
variable strain_lzC equal (lz-40)/40

variable run_var equal 0.3/(0.0001*0.001)
variable taxa_var equal v_run_var/1000

dump 2 all custom 3000 folha.lammpstrj   id  type  x y z

fix 2 all deform 1 x erate 0.001 remap x
restart         2000  restart1   restart2
run 3000000
Step           Lx             Ly             Lz            Pxx            Pyy            Pzz           KinEng         PotEng         Press           Temp
401000   99.137453      50.269869      40            -2.9494548     -29.992527     -3.0980035      2.3364785     -14612.911     -12.013328      9.189519
Averages over the last 7501 of 15001 rows, steps 1901000 to 3401000:
Lx Ly Lz Pxx Pyy Pzz KinEng PotEng Press Temp
121.443 3.35783e+06 40 -71099.4 1.86942 35.3846 1328.42 -10953.5 -23687.4 5224.76
Loop time of 73256.3 on 32 procs for 3000000 steps with 1968 atoms
